 Abaqus/Standard 2020                  DATE 05-Dec-2022 TIME 13:10:23
 SUMMARY OF JOB INFORMATION:
 STEP  INC ATT SEVERE EQUIL TOTAL  TOTAL      STEP       INC OF       DOF    IF
               DISCON ITERS ITERS  TIME/    TIME/LPF    TIME/LPF    MONITOR RIKS
               ITERS               FREQ
   1     1   1U    0     3     3  0.00       0.00       1.000     
   1     1   2     0     6     6  0.250      0.250      0.2500    
   1     2   1     0     5     5  0.500      0.500      0.2500    
   1     3   1     0     6     6  0.750      0.750      0.2500    
   1     4   1U    0     2     2  0.750      0.750      0.2500    
   1     4   2     0     4     4  0.813      0.813      0.06250   
   1     5   1     0     9     9  0.875      0.875      0.06250   
   1     6   1     0     3     3  0.938      0.938      0.06250   
   1     7   1     0     2     2  1.00       1.00       0.06250   
                          
 THE ANALYSIS HAS COMPLETED SUCCESSFULLY
