*Heading
** Job name: Job-5 Model name: Model-2
** Generated by: Abaqus/CAE 2020
*Preprint, echo=NO, model=NO, history=NO, contact=NO
**
** PARTS
**
*Part, name=Part
*Node
      1, -0.200000003, -0.200000003,  0.400000006
      2, -0.200000003, -0.150000006,  0.400000006
      3, -0.200000003, -0.100000001,  0.400000006
      4, -0.200000003, -0.0500000007,  0.400000006
      5, -0.200000003,           0.,  0.400000006
      6, -0.200000003, 0.0500000007,  0.400000006
      7, -0.200000003,  0.100000001,  0.400000006
      8, -0.200000003,  0.150000006,  0.400000006
      9, -0.200000003,  0.200000003,  0.400000006
     10, -0.200000003, -0.200000003,  0.349999994
     11, -0.200000003, -0.150000006,  0.349999994
     12, -0.200000003, -0.100000001,  0.349999994
     13, -0.200000003, -0.0500000007,  0.349999994
     14, -0.200000003,           0.,  0.349999994
     15, -0.200000003, 0.0500000007,  0.349999994
     16, -0.200000003,  0.100000001,  0.349999994
     17, -0.200000003,  0.150000006,  0.349999994
     18, -0.200000003,  0.200000003,  0.349999994
     19, -0.200000003, -0.200000003,  0.300000012
     20, -0.200000003, -0.150000006,  0.300000012
** ... 709 like lines cut
*Element, type=C3D8R
  1,  82,  83,  92,  91,   1,   2,  11,  10
  2,  83,  84,  93,  92,   2,   3,  12,  11
  3,  84,  85,  94,  93,   3,   4,  13,  12
  4,  85,  86,  95,  94,   4,   5,  14,  13
  5,  86,  87,  96,  95,   5,   6,  15,  14
  6,  87,  88,  97,  96,   6,   7,  16,  15
  7,  88,  89,  98,  97,   7,   8,  17,  16
  8,  89,  90,  99,  98,   8,   9,  18,  17
  9,  91,  92, 101, 100,  10,  11,  20,  19
 10,  92,  93, 102, 101,  11,  12,  21,  20
 11,  93,  94, 103, 102,  12,  13,  22,  21
 12,  94,  95, 104, 103,  13,  14,  23,  22
 13,  95,  96, 105, 104,  14,  15,  24,  23
 14,  96,  97, 106, 105,  15,  16,  25,  24
 15,  97,  98, 107, 106,  16,  17,  26,  25
 16,  98,  99, 108, 107,  17,  18,  27,  26
 17, 100, 101, 110, 109,  19,  20,  29,  28
 18, 101, 102, 111, 110,  20,  21,  30,  29
 19, 102, 103, 112, 111,  21,  22,  31,  30
 20, 103, 104, 113, 112,  22,  23,  32,  31
** ... 492 like lines cut
*Nset, nset=Set-1, generate
   1,  729,    1
*Elset, elset=Set-1, generate
   1,  512,    1
** Section: Section-1
*Solid Section, elset=Set-1, material=Material-1
,
*End Part
**  
**
** ASSEMBLY
**
*Assembly, name=Assembly
**  
*Instance, name=Part-1, part=Part
         0.2,          0.2,         -0.4
*End Instance
**  
*Nset, nset=Set-3, instance=Part-1, generate
   9,  729,    9
*Elset, elset=Set-3, instance=Part-1, generate
   8,  512,    8
*Nset, nset=_PickedSet4, internal, instance=Part-1, generate
   1,  721,    9
*Elset, elset=_PickedSet4, internal, instance=Part-1, generate
   1,  505,    8
*End Assembly
** 
** MATERIALS
** 
*Material, name=Material-1
*Density
 1.5e-06,
*Hyperelastic, neo hooke
100., 0.0008
** 
** BOUNDARY CONDITIONS
** 
** Name: BC-1 Type: Symmetry/Antisymmetry/Encastre
*Boundary
_PickedSet4, ENCASTRE
** ----------------------------------------------------------------
** 
** STEP: Step-1
** 
*Step, name=Step-1, nlgeom=YES
*Static
1., 1., 1e-05, 1.
** 
** BOUNDARY CONDITIONS
** 
** Name: BC-2 Type: Displacement/Rotation
*Boundary
Set-3, 1, 1, 0.2
Set-3, 2, 2, 0.3
Set-3, 3, 3, 0.2
** 
** OUTPUT REQUESTS
** 
*Restart, write, frequency=0
** 
** FIELD OUTPUT: F-Output-1
** 
*Output, field, variable=PRESELECT
** 
** HISTORY OUTPUT: H-Output-1
** 
*Output, history, variable=PRESELECT
*EL PRINT
DG
*End Step
