1

   Abaqus 2020                                  Date 05-Dec-2022   Time 13:36:33
   For use by UNIVERSITY OF CAMBRIDGE under license from Dassault Systemes or its subsidiary.

                                                                                 
                                                                                 
 STEP    1     INCREMENT     1     STEP TIME    0.00    


                        S T E P       1     S T A T I C   A N A L Y S I S


                                                                                          

     AUTOMATIC TIME CONTROL WITH -
          A SUGGESTED INITIAL TIME INCREMENT OF                 1.00    
          AND A TOTAL TIME PERIOD OF                            1.00    
          THE MINIMUM TIME INCREMENT ALLOWED IS                1.000E-05
          THE MAXIMUM TIME INCREMENT ALLOWED IS                 1.00    

     LINEAR EQUATION SOLVER TYPE         DIRECT SPARSE

 CONVERGENCE TOLERANCE PARAMETERS FOR FORCE    
     CRITERION FOR RESIDUAL FORCE     FOR A NONLINEAR PROBLEM          5.000E-03
     CRITERION FOR DISP.    CORRECTION IN A NONLINEAR PROBLEM          1.000E-02
     INITIAL VALUE OF TIME AVERAGE FORCE                               1.000E-02
     AVERAGE FORCE     IS TIME AVERAGE FORCE    
     ALTERNATE CRIT. FOR RESIDUAL FORCE     FOR A NONLINEAR PROBLEM    2.000E-02
     CRITERION FOR ZERO FORCE     RELATIVE TO TIME AVRG. FORCE         1.000E-05
     CRITERION FOR RESIDUAL FORCE     WHEN THERE IS ZERO FLUX          1.000E-05
     CRITERION FOR DISP.    CORRECTION WHEN THERE IS ZERO FLUX         1.000E-03
     CRITERION FOR RESIDUAL FORCE     FOR A LINEAR INCREMENT           1.000E-08
     FIELD CONVERSION RATIO                                             1.00    
     CRITERION FOR ZERO FORCE     REL. TO TIME AVRG. MAX. FORCE        1.000E-05
     CRITERION FOR ZERO DISP.    RELATIVE TO CHARACTERISTIC LENGTH     1.000E-08

     VOLUMETRIC STRAIN COMPATIBILITY TOLERANCE FOR HYBRID SOLIDS       1.000E-05
     AXIAL STRAIN COMPATIBILITY TOLERANCE FOR HYBRID BEAMS             1.000E-05
     TRANS. SHEAR STRAIN COMPATIBILITY TOLERANCE FOR HYBRID BEAMS      1.000E-05
     SOFT CONTACT CONSTRAINT COMPATIBILITY TOLERANCE FOR P>P0          5.000E-03
     SOFT CONTACT CONSTRAINT COMPATIBILITY TOLERANCE FOR P=0.0         0.100    
     CONTACT FORCE ERROR TOLERANCE FOR CONVERT SDI=YES                 1.00    
     DISPLACEMENT COMPATIBILITY TOLERANCE FOR DCOUP ELEMENTS           1.000E-05
     ROTATION COMPATIBILITY TOLERANCE FOR DCOUP ELEMENTS               1.000E-05

 EQUILIBRIUM WILL BE CHECKED FOR SEVERE DISCONTINUITY ITERATIONS

 TIME INCREMENTATION CONTROL PARAMETERS:
     FIRST EQUILIBRIUM ITERATION FOR CONSECUTIVE DIVERGENCE CHECK              4
     EQUILIBRIUM ITERATION AT WHICH LOG. CONVERGENCE RATE CHECK BEGINS         8
     EQUILIBRIUM ITERATION AFTER WHICH ALTERNATE RESIDUAL IS USED              9
     MAXIMUM EQUILIBRIUM ITERATIONS ALLOWED                                   16
     EQUILIBRIUM ITERATION COUNT FOR CUT-BACK IN NEXT INCREMENT               10
     MAXIMUM EQUILIB. ITERS IN TWO INCREMENTS FOR TIME INCREMENT INCREASE      4
     MAXIMUM ITERATIONS FOR SEVERE DISCONTINUITIES                            50
     MAXIMUM ATTEMPTS ALLOWED IN AN INCREMENT                                  5
     MAXIMUM DISCON. ITERS IN TWO INCREMENTS FOR TIME INCREMENT INCREASE      50
     MAXIMUM CONTACT AUGMENTATIONS FOR *SURFACE BEHAVIOR,AUGMENTED LAGRANGE   50
     CUT-BACK FACTOR AFTER DIVERGENCE                                 0.2500    
     CUT-BACK FACTOR FOR TOO SLOW CONVERGENCE                         0.5000    
     CUT-BACK FACTOR AFTER TOO MANY EQUILIBRIUM ITERATIONS            0.7500    
     CUT-BACK FACTOR AFTER TOO MANY SEVERE DISCONTINUITY ITERATIONS   0.2500    
     CUT-BACK FACTOR AFTER PROBLEMS IN ELEMENT ASSEMBLY               0.2500    
     INCREASE FACTOR AFTER TWO INCREMENTS THAT CONVERGE QUICKLY        1.500    
     MAX. TIME INCREMENT INCREASE FACTOR ALLOWED                       1.500    
     MAX. TIME INCREMENT INCREASE FACTOR ALLOWED (DYNAMICS)            1.250    
     MAX. TIME INCREMENT INCREASE FACTOR ALLOWED (DIFFUSION)           2.000    
     MINIMUM TIME INCREMENT RATIO FOR EXTRAPOLATION TO OCCUR          0.1000    
     MAX. RATIO OF TIME INCREMENT TO STABILITY LIMIT                   1.000    
     FRACTION OF STABILITY LIMIT FOR NEW TIME INCREMENT               0.9500    
     TIME INCREMENT INCREASE FACTOR BEFORE A TIME POINT                1.000    
     GLOBAL STABILIZATION CONTROL IS NOT USED

          PRINT OF INCREMENT NUMBER, TIME, ETC., EVERY    1  INCREMENTS

     THE MAXIMUM NUMBER OF INCREMENTS IN THIS STEP IS                     100

          LARGE DISPLACEMENT THEORY WILL BE USED

     LINEAR EXTRAPOLATION WILL BE USED

     CHARACTERISTIC ELEMENT LENGTH     5.000E-02

     DETAILS REGARDING ACTUAL SOLUTION WAVEFRONT REQUESTED

     DETAILED OUTPUT OF DIAGNOSTICS TO DATABASE REQUESTED

     PRINT OF INCREMENT NUMBER, TIME, ETC., TO THE MESSAGE FILE EVERY     1  INCREMENTS

     COLLECTING MODEL CONSTRAINT INFORMATION FOR OVERCONSTRAINT CHECKS

     COLLECTING STEP CONSTRAINT INFORMATION FOR OVERCONSTRAINT CHECKS


  INCREMENT     1 STARTS. ATTEMPT NUMBER  1, TIME INCREMENT   1.00    

  NUMBER OF EQUATIONS =      2187     NUMBER OF RHS =    1
  NUMBER OF FLOATING PT. OPERATIONS =  8.65E+07

     CHECK POINT   START OF SOLVER    

     CHECK POINT  END OF SOLVER       

       ELAPSED USER TIME (SEC)      =   0.0000    
       ELAPSED SYSTEM TIME (SEC)    =   0.0000    
       ELAPSED TOTAL CPU TIME (SEC) =   0.0000    
       ELAPSED WALLCLOCK TIME (SEC) =          0

               CONVERGENCE CHECKS FOR EQUILIBRIUM ITERATION     1


 AVERAGE FORCE                      0.424       TIME AVG. FORCE       0.424    
 LARGEST RESIDUAL FORCE              3.25       AT NODE        574   DOF  3
   INSTANCE: PART-1                                                                          
 LARGEST INCREMENT OF DISP.         0.300       AT NODE          9   DOF  2
   INSTANCE: PART-1                                                                          
 LARGEST CORRECTION TO DISP.        0.300       AT NODE          9   DOF  2
   INSTANCE: PART-1                                                                          
          FORCE     EQUILIBRIUM NOT ACHIEVED WITHIN TOLERANCE.

  NUMBER OF EQUATIONS =      2187     NUMBER OF RHS =    1
  NUMBER OF FLOATING PT. OPERATIONS =  8.65E+07

     CHECK POINT   START OF SOLVER    

     CHECK POINT  END OF SOLVER       

       ELAPSED USER TIME (SEC)      =   0.0000    
       ELAPSED SYSTEM TIME (SEC)    =   0.0000    
       ELAPSED TOTAL CPU TIME (SEC) =   0.0000    
       ELAPSED WALLCLOCK TIME (SEC) =          0
 

 ***WARNING: THE SYSTEM MATRIX HAS 102 NEGATIVE EIGENVALUES.

     NEGATIVE EIGENVALUES MEAN THAT THE SYSTEM MATRIX IS NOT 
     POSITIVE DEFINITE:
     FOR EXAMPLE, A BIFURCATION (BUCKLING) LOAD MAY HAVE BEEN EXCEEDED.
   ELEMENT PART-1.1 IS DISTORTING EXCESSIVELY.
   ELEMENT PART-1.3 IS DISTORTING EXCESSIVELY.
   ELEMENT PART-1.4 IS DISTORTING EXCESSIVELY.
   ELEMENT PART-1.5 IS DISTORTING EXCESSIVELY.
   ELEMENT PART-1.6 IS DISTORTING EXCESSIVELY.
   ELEMENT PART-1.8 IS DISTORTING EXCESSIVELY.
   ELEMENT PART-1.9 IS DISTORTING EXCESSIVELY.
   ELEMENT PART-1.11 IS DISTORTING EXCESSIVELY.
   ELEMENT PART-1.13 IS DISTORTING EXCESSIVELY.
   ELEMENT PART-1.25 IS DISTORTING EXCESSIVELY.
   ELEMENT PART-1.26 IS DISTORTING EXCESSIVELY.
   ELEMENT PART-1.29 IS DISTORTING EXCESSIVELY.
   ELEMENT PART-1.33 IS DISTORTING EXCESSIVELY.
   ELEMENT PART-1.35 IS DISTORTING EXCESSIVELY.
   ELEMENT PART-1.36 IS DISTORTING EXCESSIVELY.
   ELEMENT PART-1.39 IS DISTORTING EXCESSIVELY.
   ELEMENT PART-1.41 IS DISTORTING EXCESSIVELY.
   ELEMENT PART-1.46 IS DISTORTING EXCESSIVELY.
   ELEMENT PART-1.52 IS DISTORTING EXCESSIVELY.
   ELEMENT PART-1.53 IS DISTORTING EXCESSIVELY.
   ELEMENT PART-1.55 IS DISTORTING EXCESSIVELY.
   ELEMENT PART-1.61 IS DISTORTING EXCESSIVELY.
   ELEMENT PART-1.68 IS DISTORTING EXCESSIVELY.
   ELEMENT PART-1.70 IS DISTORTING EXCESSIVELY.
   ELEMENT PART-1.72 IS DISTORTING EXCESSIVELY.
   ELEMENT PART-1.74 IS DISTORTING EXCESSIVELY.
   ELEMENT PART-1.79 IS DISTORTING EXCESSIVELY.
   ELEMENT PART-1.83 IS DISTORTING EXCESSIVELY.
   ELEMENT PART-1.84 IS DISTORTING EXCESSIVELY.
   ELEMENT PART-1.87 IS DISTORTING EXCESSIVELY.
   ELEMENT PART-1.95 IS DISTORTING EXCESSIVELY.
   ELEMENT PART-1.103 IS DISTORTING EXCESSIVELY.
   ELEMENT PART-1.109 IS DISTORTING EXCESSIVELY.
   ELEMENT PART-1.110 IS DISTORTING EXCESSIVELY.
   ELEMENT PART-1.111 IS DISTORTING EXCESSIVELY.
   ELEMENT PART-1.117 IS DISTORTING EXCESSIVELY.
   ELEMENT PART-1.124 IS DISTORTING EXCESSIVELY.
   ELEMENT PART-1.125 IS DISTORTING EXCESSIVELY.
   ELEMENT PART-1.127 IS DISTORTING EXCESSIVELY.
   ELEMENT PART-1.138 IS DISTORTING EXCESSIVELY.
   ELEMENT PART-1.141 IS DISTORTING EXCESSIVELY.
   ELEMENT PART-1.142 IS DISTORTING EXCESSIVELY.
   ELEMENT PART-1.147 IS DISTORTING EXCESSIVELY.
   ELEMENT PART-1.150 IS DISTORTING EXCESSIVELY.
   ELEMENT PART-1.153 IS DISTORTING EXCESSIVELY.
   ELEMENT PART-1.159 IS DISTORTING EXCESSIVELY.
   ELEMENT PART-1.161 IS DISTORTING EXCESSIVELY.
   ELEMENT PART-1.164 IS DISTORTING EXCESSIVELY.
   ELEMENT PART-1.165 IS DISTORTING EXCESSIVELY.
   ELEMENT PART-1.169 IS DISTORTING EXCESSIVELY.
   ELEMENT PART-1.170 IS DISTORTING EXCESSIVELY.
   ELEMENT PART-1.181 IS DISTORTING EXCESSIVELY.
   ELEMENT PART-1.182 IS DISTORTING EXCESSIVELY.
   ELEMENT PART-1.183 IS DISTORTING EXCESSIVELY.
   ELEMENT PART-1.185 IS DISTORTING EXCESSIVELY.
   ELEMENT PART-1.190 IS DISTORTING EXCESSIVELY.
   ELEMENT PART-1.196 IS DISTORTING EXCESSIVELY.
   ELEMENT PART-1.199 IS DISTORTING EXCESSIVELY.
   ELEMENT PART-1.200 IS DISTORTING EXCESSIVELY.
   ELEMENT PART-1.202 IS DISTORTING EXCESSIVELY.
   ELEMENT PART-1.210 IS DISTORTING EXCESSIVELY.
   ELEMENT PART-1.216 IS DISTORTING EXCESSIVELY.
   ELEMENT PART-1.219 IS DISTORTING EXCESSIVELY.
   ELEMENT PART-1.220 IS DISTORTING EXCESSIVELY.
   ELEMENT PART-1.221 IS DISTORTING EXCESSIVELY.
   ELEMENT PART-1.222 IS DISTORTING EXCESSIVELY.
   ELEMENT PART-1.233 IS DISTORTING EXCESSIVELY.
   ELEMENT PART-1.236 IS DISTORTING EXCESSIVELY.
   ELEMENT PART-1.237 IS DISTORTING EXCESSIVELY.
   ELEMENT PART-1.247 IS DISTORTING EXCESSIVELY.
   ELEMENT PART-1.249 IS DISTORTING EXCESSIVELY.
   ELEMENT PART-1.251 IS DISTORTING EXCESSIVELY.
   ELEMENT PART-1.252 IS DISTORTING EXCESSIVELY.
   ELEMENT PART-1.255 IS DISTORTING EXCESSIVELY.
   ELEMENT PART-1.258 IS DISTORTING EXCESSIVELY.
   ELEMENT PART-1.261 IS DISTORTING EXCESSIVELY.
   ELEMENT PART-1.262 IS DISTORTING EXCESSIVELY.
   ELEMENT PART-1.264 IS DISTORTING EXCESSIVELY.
   ELEMENT PART-1.266 IS DISTORTING EXCESSIVELY.
   ELEMENT PART-1.276 IS DISTORTING EXCESSIVELY.
   ELEMENT PART-1.277 IS DISTORTING EXCESSIVELY.
   ELEMENT PART-1.280 IS DISTORTING EXCESSIVELY.
   ELEMENT PART-1.291 IS DISTORTING EXCESSIVELY.
   ELEMENT PART-1.292 IS DISTORTING EXCESSIVELY.
   ELEMENT PART-1.293 IS DISTORTING EXCESSIVELY.
   ELEMENT PART-1.294 IS DISTORTING EXCESSIVELY.
   ELEMENT PART-1.297 IS DISTORTING EXCESSIVELY.
   ELEMENT PART-1.303 IS DISTORTING EXCESSIVELY.
   ELEMENT PART-1.311 IS DISTORTING EXCESSIVELY.
   ELEMENT PART-1.313 IS DISTORTING EXCESSIVELY.
   ELEMENT PART-1.314 IS DISTORTING EXCESSIVELY.
   ELEMENT PART-1.317 IS DISTORTING EXCESSIVELY.
   ELEMENT PART-1.323 IS DISTORTING EXCESSIVELY.
   ELEMENT PART-1.328 IS DISTORTING EXCESSIVELY.
   ELEMENT PART-1.330 IS DISTORTING EXCESSIVELY.
   ELEMENT PART-1.331 IS DISTORTING EXCESSIVELY.
   ELEMENT PART-1.332 IS DISTORTING EXCESSIVELY.
   ELEMENT PART-1.343 IS DISTORTING EXCESSIVELY.
   ELEMENT PART-1.344 IS DISTORTING EXCESSIVELY.
   ELEMENT PART-1.348 IS DISTORTING EXCESSIVELY.
   ELEMENT PART-1.349 IS DISTORTING EXCESSIVELY.
   ELEMENT PART-1.352 IS DISTORTING EXCESSIVELY.
   ELEMENT PART-1.354 IS DISTORTING EXCESSIVELY.
   ELEMENT PART-1.360 IS DISTORTING EXCESSIVELY.
   ELEMENT PART-1.363 IS DISTORTING EXCESSIVELY.
   ELEMENT PART-1.366 IS DISTORTING EXCESSIVELY.
   ELEMENT PART-1.371 IS DISTORTING EXCESSIVELY.
   ELEMENT PART-1.372 IS DISTORTING EXCESSIVELY.
   ELEMENT PART-1.375 IS DISTORTING EXCESSIVELY.
   ELEMENT PART-1.386 IS DISTORTING EXCESSIVELY.
   ELEMENT PART-1.388 IS DISTORTING EXCESSIVELY.
   ELEMENT PART-1.389 IS DISTORTING EXCESSIVELY.
   ELEMENT PART-1.396 IS DISTORTING EXCESSIVELY.
   ELEMENT PART-1.402 IS DISTORTING EXCESSIVELY.
   ELEMENT PART-1.403 IS DISTORTING EXCESSIVELY.
   ELEMENT PART-1.404 IS DISTORTING EXCESSIVELY.
   ELEMENT PART-1.410 IS DISTORTING EXCESSIVELY.
   ELEMENT PART-1.418 IS DISTORTING EXCESSIVELY.
   ELEMENT PART-1.426 IS DISTORTING EXCESSIVELY.
   ELEMENT PART-1.429 IS DISTORTING EXCESSIVELY.
   ELEMENT PART-1.430 IS DISTORTING EXCESSIVELY.
   ELEMENT PART-1.434 IS DISTORTING EXCESSIVELY.
   ELEMENT PART-1.439 IS DISTORTING EXCESSIVELY.
   ELEMENT PART-1.441 IS DISTORTING EXCESSIVELY.
   ELEMENT PART-1.443 IS DISTORTING EXCESSIVELY.
   ELEMENT PART-1.445 IS DISTORTING EXCESSIVELY.
   ELEMENT PART-1.452 IS DISTORTING EXCESSIVELY.
   ELEMENT PART-1.458 IS DISTORTING EXCESSIVELY.
   ELEMENT PART-1.460 IS DISTORTING EXCESSIVELY.
   ELEMENT PART-1.461 IS DISTORTING EXCESSIVELY.
   ELEMENT PART-1.467 IS DISTORTING EXCESSIVELY.
   ELEMENT PART-1.472 IS DISTORTING EXCESSIVELY.
   ELEMENT PART-1.474 IS DISTORTING EXCESSIVELY.
   ELEMENT PART-1.477 IS DISTORTING EXCESSIVELY.
   ELEMENT PART-1.478 IS DISTORTING EXCESSIVELY.
   ELEMENT PART-1.480 IS DISTORTING EXCESSIVELY.
   ELEMENT PART-1.484 IS DISTORTING EXCESSIVELY.
   ELEMENT PART-1.487 IS DISTORTING EXCESSIVELY.
   ELEMENT PART-1.488 IS DISTORTING EXCESSIVELY.
   ELEMENT PART-1.500 IS DISTORTING EXCESSIVELY.
   ELEMENT PART-1.502 IS DISTORTING EXCESSIVELY.
   ELEMENT PART-1.504 IS DISTORTING EXCESSIVELY.
   ELEMENT PART-1.505 IS DISTORTING EXCESSIVELY.
   ELEMENT PART-1.507 IS DISTORTING EXCESSIVELY.
   ELEMENT PART-1.508 IS DISTORTING EXCESSIVELY.
   ELEMENT PART-1.509 IS DISTORTING EXCESSIVELY.
   ELEMENT PART-1.510 IS DISTORTING EXCESSIVELY.
   ELEMENT PART-1.512 IS DISTORTING EXCESSIVELY.

 ***WARNING: EXCESSIVE DISTORTION AT A TOTAL OF 148 INTEGRATION POINTS IN SOLID 
             (CONTINUUM) ELEMENTS
 

 ***NOTE: ELEMENTS ARE DISTORTING EXCESSIVELY. CONVERGENCE IS JUDGED UNLIKELY.


  INCREMENT     1 STARTS. ATTEMPT NUMBER  2, TIME INCREMENT  0.250    

  NUMBER OF EQUATIONS =      2187     NUMBER OF RHS =    1
  NUMBER OF FLOATING PT. OPERATIONS =  8.65E+07

     CHECK POINT   START OF SOLVER    

     CHECK POINT  END OF SOLVER       

       ELAPSED USER TIME (SEC)      =   0.0000    
       ELAPSED SYSTEM TIME (SEC)    =   0.0000    
       ELAPSED TOTAL CPU TIME (SEC) =   0.0000    
       ELAPSED WALLCLOCK TIME (SEC) =          0

               CONVERGENCE CHECKS FOR EQUILIBRIUM ITERATION     1


 AVERAGE FORCE                      4.133E-02   TIME AVG. FORCE       4.133E-02
 LARGEST RESIDUAL FORCE             0.163       AT NODE        494   DOF  2
   INSTANCE: PART-1                                                                          
 LARGEST INCREMENT OF DISP.         7.500E-02   AT NODE          9   DOF  2
   INSTANCE: PART-1                                                                          
 LARGEST CORRECTION TO DISP.        7.500E-02   AT NODE          9   DOF  2
   INSTANCE: PART-1                                                                          
          FORCE     EQUILIBRIUM NOT ACHIEVED WITHIN TOLERANCE.

  NUMBER OF EQUATIONS =      2187     NUMBER OF RHS =    1
  NUMBER OF FLOATING PT. OPERATIONS =  8.65E+07

     CHECK POINT   START OF SOLVER    

     CHECK POINT  END OF SOLVER       

       ELAPSED USER TIME (SEC)      =   0.0000    
       ELAPSED SYSTEM TIME (SEC)    =   0.0000    
       ELAPSED TOTAL CPU TIME (SEC) =   0.0000    
       ELAPSED WALLCLOCK TIME (SEC) =          0

               CONVERGENCE CHECKS FOR EQUILIBRIUM ITERATION     2


 AVERAGE FORCE                      3.807E-02   TIME AVG. FORCE       3.807E-02
 LARGEST RESIDUAL FORCE             1.692E-02   AT NODE        146   DOF  2
   INSTANCE: PART-1                                                                          
 LARGEST INCREMENT OF DISP.         7.500E-02   AT NODE          9   DOF  2
   INSTANCE: PART-1                                                                          
 LARGEST CORRECTION TO DISP.       -6.878E-03   AT NODE         74   DOF  2
   INSTANCE: PART-1                                                                          
          FORCE     EQUILIBRIUM NOT ACHIEVED WITHIN TOLERANCE.

  NUMBER OF EQUATIONS =      2187     NUMBER OF RHS =    1
  NUMBER OF FLOATING PT. OPERATIONS =  8.65E+07

     CHECK POINT   START OF SOLVER    

     CHECK POINT  END OF SOLVER       

       ELAPSED USER TIME (SEC)      =   0.0000    
       ELAPSED SYSTEM TIME (SEC)    =   0.0000    
       ELAPSED TOTAL CPU TIME (SEC) =   0.0000    
       ELAPSED WALLCLOCK TIME (SEC) =          0

               CONVERGENCE CHECKS FOR EQUILIBRIUM ITERATION     3


 AVERAGE FORCE                      3.810E-02   TIME AVG. FORCE       3.810E-02
 LARGEST RESIDUAL FORCE            -7.150E-05   AT NODE        147   DOF  2
   INSTANCE: PART-1                                                                          
 LARGEST INCREMENT OF DISP.         7.500E-02   AT NODE          9   DOF  2
   INSTANCE: PART-1                                                                          
 LARGEST CORRECTION TO DISP.        2.457E-04   AT NODE        575   DOF  1
   INSTANCE: PART-1                                                                          
          THE FORCE     EQUILIBRIUM EQUATIONS HAVE CONVERGED

 ITERATION SUMMARY FOR THE INCREMENT:   3 TOTAL ITERATIONS, OF WHICH
   0 ARE SEVERE DISCONTINUITY ITERATIONS AND  3 ARE EQUILIBRIUM ITERATIONS.

 TIME INCREMENT COMPLETED  0.250    ,  FRACTION OF STEP COMPLETED  0.250    
 STEP TIME COMPLETED       0.250    ,  TOTAL TIME COMPLETED        0.250    


  INCREMENT     2 STARTS. ATTEMPT NUMBER  1, TIME INCREMENT  0.250    

  NUMBER OF EQUATIONS =      2187     NUMBER OF RHS =    1
  NUMBER OF FLOATING PT. OPERATIONS =  8.65E+07

     CHECK POINT   START OF SOLVER    

     CHECK POINT  END OF SOLVER       

       ELAPSED USER TIME (SEC)      =   0.0000    
       ELAPSED SYSTEM TIME (SEC)    =   0.0000    
       ELAPSED TOTAL CPU TIME (SEC) =   0.0000    
       ELAPSED WALLCLOCK TIME (SEC) =          0

               CONVERGENCE CHECKS FOR EQUILIBRIUM ITERATION     1


 AVERAGE FORCE                      7.005E-02   TIME AVG. FORCE       5.407E-02
 LARGEST RESIDUAL FORCE             3.725E-02   AT NODE        146   DOF  2
   INSTANCE: PART-1                                                                          
 LARGEST INCREMENT OF DISP.         7.500E-02   AT NODE          9   DOF  2
   INSTANCE: PART-1                                                                          
 LARGEST CORRECTION TO DISP.       -9.551E-03   AT NODE         75   DOF  2
   INSTANCE: PART-1                                                                          
          FORCE     EQUILIBRIUM NOT ACHIEVED WITHIN TOLERANCE.

  NUMBER OF EQUATIONS =      2187     NUMBER OF RHS =    1
  NUMBER OF FLOATING PT. OPERATIONS =  8.65E+07

     CHECK POINT   START OF SOLVER    

     CHECK POINT  END OF SOLVER       

       ELAPSED USER TIME (SEC)      =   0.0000    
       ELAPSED SYSTEM TIME (SEC)    =   0.0000    
       ELAPSED TOTAL CPU TIME (SEC) =   0.0000    
       ELAPSED WALLCLOCK TIME (SEC) =          0

               CONVERGENCE CHECKS FOR EQUILIBRIUM ITERATION     2


 AVERAGE FORCE                      7.007E-02   TIME AVG. FORCE       5.408E-02
 LARGEST RESIDUAL FORCE             3.099E-04   AT NODE         38   DOF  2
   INSTANCE: PART-1                                                                          
 LARGEST INCREMENT OF DISP.         7.500E-02   AT NODE          9   DOF  2
   INSTANCE: PART-1                                                                          
 LARGEST CORRECTION TO DISP.        6.855E-04   AT NODE        655   DOF  2
   INSTANCE: PART-1                                                                          
          FORCE     EQUILIBRIUM NOT ACHIEVED WITHIN TOLERANCE.

  NUMBER OF EQUATIONS =      2187     NUMBER OF RHS =    1
  NUMBER OF FLOATING PT. OPERATIONS =  8.65E+07

     CHECK POINT   START OF SOLVER    

     CHECK POINT  END OF SOLVER       

       ELAPSED USER TIME (SEC)      =   0.0000    
       ELAPSED SYSTEM TIME (SEC)    =   0.0000    
       ELAPSED TOTAL CPU TIME (SEC) =   0.0000    
       ELAPSED WALLCLOCK TIME (SEC) =          0

               CONVERGENCE CHECKS FOR EQUILIBRIUM ITERATION     3


 AVERAGE FORCE                      7.007E-02   TIME AVG. FORCE       5.408E-02
 LARGEST RESIDUAL FORCE            -1.420E-07   AT NODE        637   DOF  3
   INSTANCE: PART-1                                                                          
 LARGEST INCREMENT OF DISP.         7.500E-02   AT NODE          9   DOF  2
   INSTANCE: PART-1                                                                          
 LARGEST CORRECTION TO DISP.        1.593E-05   AT NODE        727   DOF  3
   INSTANCE: PART-1                                                                          
          THE FORCE     EQUILIBRIUM EQUATIONS HAVE CONVERGED
          TIME INCREMENT MAY NOW INCREASE TO    0.375    

 ITERATION SUMMARY FOR THE INCREMENT:   3 TOTAL ITERATIONS, OF WHICH
   0 ARE SEVERE DISCONTINUITY ITERATIONS AND  3 ARE EQUILIBRIUM ITERATIONS.

 TIME INCREMENT COMPLETED  0.250    ,  FRACTION OF STEP COMPLETED  0.500    
 STEP TIME COMPLETED       0.500    ,  TOTAL TIME COMPLETED        0.500    


  INCREMENT     3 STARTS. ATTEMPT NUMBER  1, TIME INCREMENT  0.375    

  NUMBER OF EQUATIONS =      2187     NUMBER OF RHS =    1
  NUMBER OF FLOATING PT. OPERATIONS =  8.65E+07

     CHECK POINT   START OF SOLVER    

     CHECK POINT  END OF SOLVER       

       ELAPSED USER TIME (SEC)      =   0.0000    
       ELAPSED SYSTEM TIME (SEC)    =   0.0000    
       ELAPSED TOTAL CPU TIME (SEC) =   0.0000    
       ELAPSED WALLCLOCK TIME (SEC) =          0
 

 ***WARNING: THE SYSTEM MATRIX HAS 9 NEGATIVE EIGENVALUES.
             EXPLANATIONS ARE SUGGESTED AFTER THE FIRST OCCURRENCE OF THIS MESSAGE.

               CONVERGENCE CHECKS FOR EQUILIBRIUM ITERATION     1


 AVERAGE FORCE                      0.111       TIME AVG. FORCE       7.297E-02
 LARGEST RESIDUAL FORCE             0.133       AT NODE         16   DOF  1
   INSTANCE: PART-1                                                                          
 LARGEST INCREMENT OF DISP.         0.112       AT NODE          9   DOF  2
   INSTANCE: PART-1                                                                          
 LARGEST CORRECTION TO DISP.       -8.160E-03   AT NODE          3   DOF  1
   INSTANCE: PART-1                                                                          
          FORCE     EQUILIBRIUM NOT ACHIEVED WITHIN TOLERANCE.

  NUMBER OF EQUATIONS =      2187     NUMBER OF RHS =    1
  NUMBER OF FLOATING PT. OPERATIONS =  8.65E+07

     CHECK POINT   START OF SOLVER    

     CHECK POINT  END OF SOLVER       

       ELAPSED USER TIME (SEC)      =   0.0000    
       ELAPSED SYSTEM TIME (SEC)    =   0.0000    
       ELAPSED TOTAL CPU TIME (SEC) =   0.0000    
       ELAPSED WALLCLOCK TIME (SEC) =          0

               CONVERGENCE CHECKS FOR EQUILIBRIUM ITERATION     2


 AVERAGE FORCE                      0.111       TIME AVG. FORCE       7.296E-02
 LARGEST RESIDUAL FORCE            -6.270E-02   AT NODE         88   DOF  1
   INSTANCE: PART-1                                                                          
 LARGEST INCREMENT OF DISP.         0.112       AT NODE          9   DOF  2
   INSTANCE: PART-1                                                                          
 LARGEST CORRECTION TO DISP.        4.648E-03   AT NODE          3   DOF  3
   INSTANCE: PART-1                                                                          
          FORCE     EQUILIBRIUM NOT ACHIEVED WITHIN TOLERANCE.

  NUMBER OF EQUATIONS =      2187     NUMBER OF RHS =    1
  NUMBER OF FLOATING PT. OPERATIONS =  8.65E+07

     CHECK POINT   START OF SOLVER    

     CHECK POINT  END OF SOLVER       

       ELAPSED USER TIME (SEC)      =   0.0000    
       ELAPSED SYSTEM TIME (SEC)    =   0.0000    
       ELAPSED TOTAL CPU TIME (SEC) =   0.0000    
       ELAPSED WALLCLOCK TIME (SEC) =          0

               CONVERGENCE CHECKS FOR EQUILIBRIUM ITERATION     3


 AVERAGE FORCE                      0.111       TIME AVG. FORCE       7.294E-02
 LARGEST RESIDUAL FORCE            -7.216E-03   AT NODE         88   DOF  1
   INSTANCE: PART-1                                                                          
 LARGEST INCREMENT OF DISP.         0.112       AT NODE          9   DOF  2
   INSTANCE: PART-1                                                                          
 LARGEST CORRECTION TO DISP.        1.390E-03   AT NODE          3   DOF  1
   INSTANCE: PART-1                                                                          
          FORCE     EQUILIBRIUM NOT ACHIEVED WITHIN TOLERANCE.

  NUMBER OF EQUATIONS =      2187     NUMBER OF RHS =    1
  NUMBER OF FLOATING PT. OPERATIONS =  8.65E+07

     CHECK POINT   START OF SOLVER    

     CHECK POINT  END OF SOLVER       

       ELAPSED USER TIME (SEC)      =   0.0000    
       ELAPSED SYSTEM TIME (SEC)    =   0.0000    
       ELAPSED TOTAL CPU TIME (SEC) =   0.0000    
       ELAPSED WALLCLOCK TIME (SEC) =          0

               CONVERGENCE CHECKS FOR EQUILIBRIUM ITERATION     4


 AVERAGE FORCE                      0.111       TIME AVG. FORCE       7.294E-02
 LARGEST RESIDUAL FORCE             3.024E-04   AT NODE         12   DOF  3
   INSTANCE: PART-1                                                                          
 LARGEST INCREMENT OF DISP.         0.112       AT NODE          9   DOF  2
   INSTANCE: PART-1                                                                          
 LARGEST CORRECTION TO DISP.        3.078E-04   AT NODE          3   DOF  3
   INSTANCE: PART-1                                                                          
          THE FORCE     EQUILIBRIUM EQUATIONS HAVE CONVERGED

 ITERATION SUMMARY FOR THE INCREMENT:   4 TOTAL ITERATIONS, OF WHICH
   0 ARE SEVERE DISCONTINUITY ITERATIONS AND  4 ARE EQUILIBRIUM ITERATIONS.

 TIME INCREMENT COMPLETED  0.375    ,  FRACTION OF STEP COMPLETED  0.875    
 STEP TIME COMPLETED       0.875    ,  TOTAL TIME COMPLETED        0.875    


  INCREMENT     4 STARTS. ATTEMPT NUMBER  1, TIME INCREMENT  0.125    

  NUMBER OF EQUATIONS =      2187     NUMBER OF RHS =    1
  NUMBER OF FLOATING PT. OPERATIONS =  8.65E+07

     CHECK POINT   START OF SOLVER    

     CHECK POINT  END OF SOLVER       

       ELAPSED USER TIME (SEC)      =   0.0000    
       ELAPSED SYSTEM TIME (SEC)    =   0.0000    
       ELAPSED TOTAL CPU TIME (SEC) =   0.0000    
       ELAPSED WALLCLOCK TIME (SEC) =          0

               CONVERGENCE CHECKS FOR EQUILIBRIUM ITERATION     1


 AVERAGE FORCE                      0.123       TIME AVG. FORCE       8.556E-02
 LARGEST RESIDUAL FORCE            -2.933E-03   AT NODE        717   DOF  1
   INSTANCE: PART-1                                                                          
 LARGEST INCREMENT OF DISP.         3.750E-02   AT NODE          9   DOF  2
   INSTANCE: PART-1                                                                          
 LARGEST CORRECTION TO DISP.        3.300E-03   AT NODE        653   DOF  2
   INSTANCE: PART-1                                                                          
          FORCE     EQUILIBRIUM NOT ACHIEVED WITHIN TOLERANCE.

  NUMBER OF EQUATIONS =      2187     NUMBER OF RHS =    1
  NUMBER OF FLOATING PT. OPERATIONS =  8.65E+07

     CHECK POINT   START OF SOLVER    

     CHECK POINT  END OF SOLVER       

       ELAPSED USER TIME (SEC)      =   0.0000    
       ELAPSED SYSTEM TIME (SEC)    =   0.0000    
       ELAPSED TOTAL CPU TIME (SEC) =   0.0000    
       ELAPSED WALLCLOCK TIME (SEC) =          0

               CONVERGENCE CHECKS FOR EQUILIBRIUM ITERATION     2


 AVERAGE FORCE                      0.123       TIME AVG. FORCE       8.556E-02
 LARGEST RESIDUAL FORCE             7.336E-05   AT NODE         12   DOF  1
   INSTANCE: PART-1                                                                          
 LARGEST INCREMENT OF DISP.         3.750E-02   AT NODE          9   DOF  2
   INSTANCE: PART-1                                                                          
 LARGEST CORRECTION TO DISP.       -2.530E-04   AT NODE          3   DOF  1
   INSTANCE: PART-1                                                                          
          THE FORCE     EQUILIBRIUM EQUATIONS HAVE CONVERGED

 ITERATION SUMMARY FOR THE INCREMENT:   2 TOTAL ITERATIONS, OF WHICH
   0 ARE SEVERE DISCONTINUITY ITERATIONS AND  2 ARE EQUILIBRIUM ITERATIONS.

 TIME INCREMENT COMPLETED  0.125    ,  FRACTION OF STEP COMPLETED   1.00    
 STEP TIME COMPLETED        1.00    ,  TOTAL TIME COMPLETED         1.00    


          THE ANALYSIS HAS BEEN COMPLETED



     ANALYSIS SUMMARY:
     TOTAL OF          4  INCREMENTS
                       1  CUTBACKS IN AUTOMATIC INCREMENTATION
                      14  ITERATIONS INCLUDING CONTACT ITERATIONS IF PRESENT
                      14  PASSES THROUGH THE EQUATION SOLVER OF WHICH 
                      14  INVOLVE MATRIX DECOMPOSITION, INCLUDING
                       0  DECOMPOSITION(S) OF THE MASS MATRIX
                       1  REORDERING OF EQUATIONS TO MINIMIZE WAVEFRONT
                       0  ADDITIONAL RESIDUAL EVALUATIONS FOR LINE SEARCHES
                       0  ADDITIONAL OPERATOR EVALUATIONS FOR LINE SEARCHES
                       1  WARNING MESSAGES DURING USER INPUT PROCESSING
                       3  WARNING MESSAGES DURING ANALYSIS
                       0  ANALYSIS WARNINGS ARE NUMERICAL PROBLEM MESSAGES
                       2  ANALYSIS WARNINGS ARE NEGATIVE EIGENVALUE MESSAGES
                       0  ERROR MESSAGES



     JOB TIME SUMMARY
       USER TIME (SEC)      =  0.70000    
       SYSTEM TIME (SEC)    =  0.10000    
       TOTAL CPU TIME (SEC) =  0.80000    
       WALLCLOCK TIME (SEC) =          1
